-9.0
     RDKit          3D

 31 32  0  0  0  0  0  0  0  0999 V2000
    2.5800    7.8990   53.7430 C   0  0  0  0  0  0  0  0  0  0  0  0
    1.1730    7.6170   54.2970 C   0  0  0  0  0  0  0  0  0  0  0  0
    3.6240    7.2470   54.6710 C   0  0  0  0  0  0  0  0  0  0  0  0
    2.7270    7.3390   52.2930 C   0  0  0  0  0  0  0  0  0  0  0  0
    2.6210    5.8560   52.1890 N   0  0  0  0  0  0  0  0  0  0  0  0
    1.3740    5.2880   51.5310 C   0  0  0  0  0  0  0  0  0  0  0  0
    1.7470    4.8890   50.0890 C   0  0  1  0  0  0  0  0  0  0  0  0
    1.3970    3.4520   49.8090 C   0  0  0  0  0  0  0  0  0  0  0  0
    0.9970    3.0080   48.5420 C   0  0  0  0  0  0  0  0  0  0  0  0
    0.6460    1.6720   48.3380 C   0  0  0  0  0  0  0  0  0  0  0  0
    0.6720    0.7770   49.4070 C   0  0  0  0  0  0  0  0  0  0  0  0
    1.0360    1.1930   50.6900 C   0  0  0  0  0  0  0  0  0  0  0  0
    1.4180    2.5320   50.8700 C   0  0  0  0  0  0  0  0  0  0  0  0
    0.3360   -0.5320   49.2170 O   0  0  0  0  0  0  0  0  0  0  0  0
    1.0670    0.2060   51.8300 C   0  0  0  0  0  0  0  0  0  0  0  0
    1.8460   -0.9410   51.4910 O   0  0  0  0  0  0  0  0  0  0  0  0
    1.0680    5.8110   49.2180 O   0  0  0  0  0  0  0  0  0  0  0  0
    2.8290    9.4390   53.6550 C   0  0  0  0  0  0  0  0  0  0  0  0
    4.2370    9.8310   53.9380 N   0  0  0  0  0  0  0  0  0  0  0  0
    4.4190   11.2600   54.4300 C   0  0  0  0  0  0  0  0  0  0  0  0
    5.9250   11.4730   54.6890 C   0  0  2  0  0  0  0  0  0  0  0  0
    5.8820   11.2750   58.4950 C   0  0  0  0  0  0  0  0  0  0  0  0
    5.7190   10.9700   57.1340 C   0  0  0  0  0  0  0  0  0  0  0  0
    6.1930   11.8260   56.1270 C   0  0  0  0  0  0  0  0  0  0  0  0
    6.8520   13.0050   56.5020 C   0  0  0  0  0  0  0  0  0  0  0  0
    7.0490   13.3080   57.8520 C   0  0  0  0  0  0  0  0  0  0  0  0
    6.5680   12.4440   58.8330 C   0  0  0  0  0  0  0  0  0  0  0  0
    6.7590   12.7280   60.1550 O   0  0  0  0  0  0  0  0  0  0  0  0
    5.3770   10.3500   59.5760 C   0  0  0  0  0  0  0  0  0  0  0  0
    4.6290    9.2710   59.0160 O   0  0  0  0  0  0  0  0  0  0  0  0
    6.3600   12.4960   53.7730 O   0  0  0  0  0  0  0  0  0  0  0  0
  2  1  1  0
  3  1  1  0
  4  1  1  0
  5  4  1  0
  6  5  1  0
  7  6  1  0
  8  7  1  0
  9  8  2  0
 10  9  1  0
 11 10  2  0
 12 11  1  0
 13 12  2  0
 13  8  1  0
 14 11  1  0
 15 12  1  0
 16 15  1  0
  7 17  1  6
 18  1  1  0
 19 18  1  0
 20 19  1  0
 21 20  1  0
 23 22  2  0
 24 23  1  0
 24 21  1  0
 25 24  2  0
 26 25  1  0
 27 26  2  0
 27 22  1  0
 28 27  1  0
 29 22  1  0
 30 29  1  0
 21 31  1  6
M  CHG  2   5   1  19   1
M  END
$$$$
