-9.8
     RDKit          3D

 30 33  0  0  0  0  0  0  0  0999 V2000
    3.4050    6.1850   50.8950 C   0  0  1  0  0  0  0  0  0  0  0  0
    3.9090    7.3690   50.2620 O   0  0  0  0  0  0  0  0  0  0  0  0
    2.5010    6.6340   52.0600 C   0  0  0  0  0  0  0  0  0  0  0  0
    2.8660    8.0060   52.5350 N   0  0  0  0  0  0  0  0  0  0  0  0
    2.6670    8.2960   53.9930 C   0  0  0  0  0  0  0  0  0  0  0  0
    2.6010    9.8130   54.1850 C   0  0  0  0  0  0  0  0  0  0  0  0
    3.3680   10.1270   55.3560 O   0  0  0  0  0  0  0  0  0  0  0  0
    5.6880    9.7130   55.7410 C   0  0  0  0  0  0  0  0  0  0  0  0
    7.0230   10.0050   55.4530 C   0  0  0  0  0  0  0  0  0  0  0  0
    7.3350   10.9900   54.5100 C   0  0  0  0  0  0  0  0  0  0  0  0
    6.3210   11.6870   53.8530 C   0  0  0  0  0  0  0  0  0  0  0  0
    4.9860   11.3960   54.1270 C   0  0  0  0  0  0  0  0  0  0  0  0
    4.6780   10.3990   55.0520 C   0  0  0  0  0  0  0  0  0  0  0  0
    5.4550    9.0810   58.0040 C   0  0  0  0  0  0  0  0  0  0  0  0
    5.2810    8.7420   56.6270 O   0  0  0  0  0  0  0  0  0  0  0  0
    2.6480    5.2940   49.8970 C   0  0  0  0  0  0  0  0  0  0  0  0
    1.8310    4.3430   50.6020 O   0  0  0  0  0  0  0  0  0  0  0  0
    1.4060    3.3080   49.8020 C   0  0  0  0  0  0  0  0  0  0  0  0
    1.0970    3.5510   48.4580 C   0  0  0  0  0  0  0  0  0  0  0  0
    0.6030    2.5270   47.6540 C   0  0  0  0  0  0  0  0  0  0  0  0
    0.4020    1.2420   48.1660 C   0  0  0  0  0  0  0  0  0  0  0  0
    0.7440    1.0100   49.5040 C   0  0  0  0  0  0  0  0  0  0  0  0
    1.2800    2.0010   50.3280 C   0  0  0  0  0  0  0  0  0  0  0  0
    1.5440    1.3940   51.6010 C   0  0  0  0  0  0  0  0  0  0  0  0
    2.1300    1.8390   52.8050 C   0  0  0  0  0  0  0  0  0  0  0  0
    2.1610    0.9900   53.9170 C   0  0  0  0  0  0  0  0  0  0  0  0
    1.6350   -0.2960   53.8380 C   0  0  0  0  0  0  0  0  0  0  0  0
    1.0910   -0.7790   52.6460 C   0  0  0  0  0  0  0  0  0  0  0  0
    1.0680    0.0840   51.5450 C   0  0  0  0  0  0  0  0  0  0  0  0
    0.6560   -0.1400   50.2520 N   0  0  0  0  0  0  0  0  0  0  0  0
  1  2  1  6
  3  1  1  0
  4  3  1  0
  5  4  1  0
  6  5  1  0
  7  6  1  0
  9  8  2  0
 10  9  1  0
 11 10  2  0
 12 11  1  0
 13  7  1  0
 13 12  2  0
 13  8  1  0
 15 14  1  0
 15  8  1  0
 16  1  1  0
 17 16  1  0
 18 17  1  0
 19 18  2  0
 20 19  1  0
 21 20  2  0
 22 21  1  0
 23 22  2  0
 23 18  1  0
 24 23  1  0
 25 24  2  0
 26 25  1  0
 27 26  2  0
 28 27  1  0
 29 28  2  0
 29 24  1  0
 30 29  1  0
 30 22  1  0
M  CHG  1   4   1
M  END
$$$$
