-12.1
     RDKit          3D

 45 50  0  0  0  0  0  0  0  0999 V2000
    6.7300   10.1940   59.8610 S   0  0  0  0  0  0  0  0  0  0  0  0
    6.1850   11.4000   60.4460 O   0  0  0  0  0  0  0  0  0  0  0  0
    8.1390   10.0760   59.5550 O   0  0  0  0  0  0  0  0  0  0  0  0
    5.7860    9.8280   58.4050 C   0  0  0  0  0  0  0  0  0  0  0  0
    4.3910    9.8650   58.4660 C   0  0  0  0  0  0  0  0  0  0  0  0
    3.6440    9.5800   57.3190 C   0  0  0  0  0  0  0  0  0  0  0  0
    4.2810    9.2680   56.1060 C   0  0  0  0  0  0  0  0  0  0  0  0
    5.6850    9.2520   56.0620 C   0  0  0  0  0  0  0  0  0  0  0  0
    6.4390    9.5350   57.2050 C   0  0  0  0  0  0  0  0  0  0  0  0
    3.4870    8.9760   54.9160 C   0  0  0  0  0  0  0  0  0  0  0  0
    3.2900    9.8480   53.9130 N   0  0  0  0  0  0  0  0  0  0  0  0
    2.4670    9.1560   53.0280 O   0  0  0  0  0  0  0  0  0  0  0  0
    2.2520    7.9260   53.5770 C   0  0  0  0  0  0  0  0  0  0  0  0
    2.8840    7.7550   54.7180 N   0  0  0  0  0  0  0  0  0  0  0  0
    1.3920    6.9990   52.8020 C   0  0  0  0  0  0  0  0  0  0  0  0
    2.1360    6.4620   51.7070 O   0  0  0  0  0  0  0  0  0  0  0  0
    1.7880    5.2390   51.2040 C   0  0  0  0  0  0  0  0  0  0  0  0
    1.7030    4.2290   52.1630 C   0  0  0  0  0  0  0  0  0  0  0  0
    1.3550    2.9260   51.8000 C   0  0  0  0  0  0  0  0  0  0  0  0
    1.0790    2.6100   50.4640 C   0  0  0  0  0  0  0  0  0  0  0  0
    1.1550    3.6280   49.4860 C   0  0  0  0  0  0  0  0  0  0  0  0
    1.5080    4.9360   49.8700 C   0  0  0  0  0  0  0  0  0  0  0  0
    0.8710    3.3100   48.1470 C   0  0  0  0  0  0  0  0  0  0  0  0
    0.5230    2.0100   47.7780 C   0  0  0  0  0  0  0  0  0  0  0  0
    0.4510    1.0090   48.7430 C   0  0  0  0  0  0  0  0  0  0  0  0
    0.7270    1.3070   50.0780 C   0  0  0  0  0  0  0  0  0  0  0  0
    6.2870    8.9340   60.9110 N   0  0  0  0  0  0  0  0  0  0  0  0
    7.2160    4.9510   59.8640 C   0  0  0  0  0  0  0  0  0  0  0  0
    8.2200    5.8230   60.3110 C   0  0  0  0  0  0  0  0  0  0  0  0
    7.9140    7.1470   60.6350 C   0  0  0  0  0  0  0  0  0  0  0  0
    6.6060    7.6100   60.5120 C   0  0  0  0  0  0  0  0  0  0  0  0
    5.5980    6.7510   60.0800 C   0  0  0  0  0  0  0  0  0  0  0  0
    5.9010    5.4250   59.7570 C   0  0  0  0  0  0  0  0  0  0  0  0
    7.5430    3.5200   59.5110 C   0  0  0  0  0  0  0  0  0  0  0  0
    6.4510    2.5280   59.9250 C   0  0  0  0  0  0  0  0  0  0  0  0
    5.6300    2.0760   58.7590 N   0  0  0  0  0  0  0  0  0  0  0  0
    5.4390    0.5930   58.5710 C   0  0  0  0  0  0  0  0  0  0  0  0
    4.2180    0.1380   59.4020 C   0  0  1  0  0  0  0  0  0  0  0  0
    4.6240   -0.6110   60.6370 C   0  0  0  0  0  0  0  0  0  0  0  0
    4.9000   -1.9840   60.6280 C   0  0  0  0  0  0  0  0  0  0  0  0
    5.2370   -2.6310   61.8150 C   0  0  0  0  0  0  0  0  0  0  0  0
    5.2770   -1.8860   62.9790 C   0  0  0  0  0  0  0  0  0  0  0  0
    5.0080   -0.5640   63.0250 N   0  0  0  0  0  0  0  0  0  0  0  0
    4.6960    0.0430   61.8640 C   0  0  0  0  0  0  0  0  0  0  0  0
    3.4610    1.3210   59.7190 O   0  0  0  0  0  0  0  0  0  0  0  0
  2  1  2  0
  3  1  2  0
  4  1  1  0
  5  4  2  0
  6  5  1  0
  7  6  2  0
  8  7  1  0
  9  8  2  0
  9  4  1  0
 10  7  1  0
 11 10  2  0
 12 11  1  0
 13 12  1  0
 14 13  2  0
 14 10  1  0
 15 13  1  0
 16 15  1  0
 17 16  1  0
 18 17  2  0
 19 18  1  0
 20 19  2  0
 21 20  1  0
 22 21  2  0
 22 17  1  0
 23 21  1  0
 24 23  2  0
 25 24  1  0
 26 25  2  0
 26 20  1  0
 27  1  1  0
 29 28  2  0
 30 29  1  0
 31 30  2  0
 31 27  1  0
 32 31  1  0
 33 28  1  0
 33 32  2  0
 34 28  1  0
 35 34  1  0
 36 35  1  0
 37 36  1  0
 38 37  1  0
 39 38  1  0
 40 39  2  0
 41 40  1  0
 42 41  2  0
 43 42  1  0
 44 43  2  0
 44 39  1  0
 38 45  1  1
M  CHG  1  36   1
M  END
$$$$
