-11.3
     RDKit          3D

 42 47  0  0  0  0  0  0  0  0999 V2000
    4.7770   12.9570   57.1650 N   0  0  0  0  0  0  0  0  0  0  0  0
    2.9170    9.5930   55.4090 C   0  0  0  0  0  0  0  0  0  0  0  0
    2.6360    9.9400   56.7370 C   0  0  0  0  0  0  0  0  0  0  0  0
    3.2590   11.0420   57.3270 C   0  0  0  0  0  0  0  0  0  0  0  0
    4.1680   11.8050   56.5970 C   0  0  0  0  0  0  0  0  0  0  0  0
    4.4600   11.4640   55.2780 C   0  0  0  0  0  0  0  0  0  0  0  0
    3.8370   10.3630   54.6850 C   0  0  0  0  0  0  0  0  0  0  0  0
    2.2610    8.3900   54.7800 C   0  0  0  0  0  0  0  0  0  0  0  0
    2.6810    8.2450   53.3170 C   0  0  0  0  0  0  0  0  0  0  0  0
    3.3480    6.9270   53.0620 N   0  0  0  0  0  0  0  0  0  0  0  0
    2.5240    5.8330   52.4380 C   0  0  0  0  0  0  0  0  0  0  0  0
    2.9960    5.4110   51.0220 C   0  0  1  0  0  0  0  0  0  0  0  0
    2.1840    4.2840   50.4430 C   0  0  0  0  0  0  0  0  0  0  0  0
    1.7560    4.3050   49.1110 C   0  0  0  0  0  0  0  0  0  0  0  0
    1.0540    3.2190   48.5930 C   0  0  0  0  0  0  0  0  0  0  0  0
    0.8110    2.1380   49.4210 C   0  0  0  0  0  0  0  0  0  0  0  0
    1.2130    2.0870   50.7090 N   0  0  0  0  0  0  0  0  0  0  0  0
    1.8530    3.1640   51.2010 C   0  0  0  0  0  0  0  0  0  0  0  0
    2.9180    6.5450   50.1670 O   0  0  0  0  0  0  0  0  0  0  0  0
    6.4060   12.8900   57.6220 S   0  0  0  0  0  0  0  0  0  0  0  0
    6.5910   13.9280   58.6120 O   0  0  0  0  0  0  0  0  0  0  0  0
    7.2240   12.8220   56.4300 O   0  0  0  0  0  0  0  0  0  0  0  0
    6.5140   11.3260   58.4610 C   0  0  0  0  0  0  0  0  0  0  0  0
    6.4260   11.2740   59.8540 C   0  0  0  0  0  0  0  0  0  0  0  0
    6.5520   10.0420   60.5070 C   0  0  0  0  0  0  0  0  0  0  0  0
    6.7610    8.8600   59.7780 C   0  0  0  0  0  0  0  0  0  0  0  0
    6.8310    8.9390   58.3750 C   0  0  0  0  0  0  0  0  0  0  0  0
    6.6960   10.1620   57.7130 C   0  0  0  0  0  0  0  0  0  0  0  0
    6.9410    7.5490   60.4220 C   0  0  0  0  0  0  0  0  0  0  0  0
    7.8220    7.3800   61.8920 S   0  0  0  0  0  0  0  0  0  0  0  0
    7.4860    5.7000   61.8960 C   0  0  0  0  0  0  0  0  0  0  0  0
    6.7340    5.3700   60.7900 C   0  0  0  0  0  0  0  0  0  0  0  0
    6.4280    6.4290   59.9550 N   0  0  0  0  0  0  0  0  0  0  0  0
    6.2430    3.9130   60.4630 C   0  0  0  0  0  0  0  0  0  0  0  0
    6.4440    3.2540   59.2730 C   0  0  0  0  0  0  0  0  0  0  0  0
    5.8820    1.9310   59.2660 C   0  0  0  0  0  0  0  0  0  0  0  0
    5.2630    1.6380   60.4830 C   0  0  0  0  0  0  0  0  0  0  0  0
    5.3800    2.9610   61.5790 S   0  0  0  0  0  0  0  0  0  0  0  0
    4.6430    0.3950   60.7150 C   0  0  0  0  0  0  0  0  0  0  0  0
    4.6490   -0.5630   59.6980 C   0  0  0  0  0  0  0  0  0  0  0  0
    5.2580   -0.2950   58.4790 C   0  0  0  0  0  0  0  0  0  0  0  0
    5.8730    0.9400   58.2550 C   0  0  0  0  0  0  0  0  0  0  0  0
  3  2  2  0
  4  3  1  0
  5  4  2  0
  5  1  1  0
  6  5  1  0
  7  2  1  0
  7  6  2  0
  8  2  1  0
  9  8  1  0
 10  9  1  0
 11 10  1  0
 12 11  1  0
 13 12  1  0
 14 13  2  0
 15 14  1  0
 16 15  2  0
 17 16  1  0
 18 17  2  0
 18 13  1  0
 12 19  1  6
 20  1  1  0
 21 20  2  0
 22 20  2  0
 23 20  1  0
 24 23  2  0
 25 24  1  0
 26 25  2  0
 27 26  1  0
 28 27  2  0
 28 23  1  0
 29 26  1  0
 30 29  1  0
 31 30  1  0
 32 31  2  0
 33 32  1  0
 33 29  2  0
 34 32  1  0
 35 34  2  0
 36 35  1  0
 37 36  2  0
 38 37  1  0
 38 34  1  0
 39 37  1  0
 40 39  2  0
 41 40  1  0
 42 41  2  0
 42 36  1  0
M  CHG  1  10   1
M  END
$$$$
