-10.4
     RDKit          3D

 43 47  0  0  0  0  0  0  0  0999 V2000
    5.6880   12.2430   58.2210 S   0  0  0  0  0  0  0  0  0  0  0  0
    6.0970   13.3470   57.3800 O   0  0  0  0  0  0  0  0  0  0  0  0
    4.8510   12.4450   59.3840 O   0  0  0  0  0  0  0  0  0  0  0  0
    3.5900    9.1670   55.5320 C   0  0  0  0  0  0  0  0  0  0  0  0
    4.8100    9.7470   55.1470 C   0  0  0  0  0  0  0  0  0  0  0  0
    5.4610   10.6770   55.9660 C   0  0  0  0  0  0  0  0  0  0  0  0
    4.8980   11.0260   57.1920 C   0  0  0  0  0  0  0  0  0  0  0  0
    3.7200   10.4150   57.6240 C   0  0  0  0  0  0  0  0  0  0  0  0
    3.0660    9.5060   56.7870 C   0  0  0  0  0  0  0  0  0  0  0  0
    4.4310    6.4240   54.5750 O   0  0  0  0  0  0  0  0  0  0  0  0
    3.3890    6.9840   54.2700 C   0  0  0  0  0  0  0  0  0  0  0  0
    2.4050    6.4280   53.4370 N   0  0  0  0  0  0  0  0  0  0  0  0
    1.4140    7.4180   53.0970 C   0  0  0  0  0  0  0  0  0  0  0  0
    1.5730    8.4610   54.1910 C   0  0  0  0  0  0  0  0  0  0  0  0
    2.9210    8.2560   54.6780 N   0  0  0  0  0  0  0  0  0  0  0  0
    2.6270    5.2390   52.6350 C   0  0  0  0  0  0  0  0  0  0  0  0
    1.4200    4.8900   51.7630 C   0  0  0  0  0  0  0  0  0  0  0  0
    1.0220    3.4120   51.8390 C   0  0  0  0  0  0  0  0  0  0  0  0
    1.5410    2.5240   50.6880 C   0  0  0  0  0  0  0  0  0  0  0  0
    1.9880    3.3910   49.4900 C   0  0  0  0  0  0  0  0  0  0  0  0
    0.9120    3.4950   48.4170 C   0  0  0  0  0  0  0  0  0  0  0  0
    0.5450    2.1240   47.8440 C   0  0  0  0  0  0  0  0  0  0  0  0
    0.7150    0.9830   48.8470 C   0  0  0  0  0  0  0  0  0  0  0  0
    0.5050    1.4580   50.2790 C   0  0  0  0  0  0  0  0  0  0  0  0
    7.0670   11.4240   58.7810 N   0  0  0  0  0  0  0  0  0  0  0  0
    6.8880   10.2360   59.5390 C   0  0  0  0  0  0  0  0  0  0  0  0
    6.7710   10.2940   60.9260 C   0  0  0  0  0  0  0  0  0  0  0  0
    6.7130    9.1170   61.6760 C   0  0  0  0  0  0  0  0  0  0  0  0
    6.7650    7.8690   61.0430 C   0  0  0  0  0  0  0  0  0  0  0  0
    6.8690    7.8200   59.6440 C   0  0  0  0  0  0  0  0  0  0  0  0
    6.9260    8.9990   58.8960 C   0  0  0  0  0  0  0  0  0  0  0  0
    6.7250    6.5950   61.8530 C   0  0  0  0  0  0  0  0  0  0  0  0
    5.5980    5.6450   61.4330 C   0  0  0  0  0  0  0  0  0  0  0  0
    5.7800    4.2710   61.9900 N   0  0  0  0  0  0  0  0  0  0  0  0
    6.2970    3.2160   61.0430 C   0  0  0  0  0  0  0  0  0  0  0  0
    6.8470    3.9020   59.7700 C   0  0  1  0  0  0  0  0  0  0  0  0
    8.3320    3.6960   59.6250 C   0  0  0  0  0  0  0  0  0  0  0  0
    9.2360    4.6120   60.1790 C   0  0  0  0  0  0  0  0  0  0  0  0
   10.6060    4.3760   60.0890 C   0  0  0  0  0  0  0  0  0  0  0  0
   11.0340    3.2230   59.4580 C   0  0  0  0  0  0  0  0  0  0  0  0
   10.1920    2.3160   58.9200 N   0  0  0  0  0  0  0  0  0  0  0  0
    8.8730    2.5810   58.9900 C   0  0  0  0  0  0  0  0  0  0  0  0
    6.1430    3.3380   58.6570 O   0  0  0  0  0  0  0  0  0  0  0  0
  2  1  2  0
  3  1  2  0
  5  4  2  0
  6  5  1  0
  7  6  2  0
  7  1  1  0
  8  7  1  0
  9  8  2  0
  9  4  1  0
 11 10  2  0
 12 11  1  0
 13 12  1  0
 14 13  1  0
 15 14  1  0
 15 11  1  0
 15  4  1  0
 16 12  1  0
 17 16  1  0
 18 17  1  0
 19 18  1  0
 20 19  1  0
 21 20  1  0
 22 21  1  0
 23 22  1  0
 24 23  1  0
 24 19  1  0
 25  1  1  0
 26 25  1  0
 27 26  2  0
 28 27  1  0
 29 28  2  0
 30 29  1  0
 31 30  2  0
 31 26  1  0
 32 29  1  0
 33 32  1  0
 34 33  1  0
 35 34  1  0
 36 35  1  0
 37 36  1  0
 38 37  2  0
 39 38  1  0
 40 39  2  0
 41 40  1  0
 42 41  2  0
 42 37  1  0
 36 43  1  6
M  CHG  1  34   1
M  END
$$$$
