-9.3
     RDKit          3D

 29 31  0  0  0  0  0  0  0  0999 V2000
    1.6160    6.3900   52.1700 C   0  0  0  0  0  0  0  0  0  0  0  0
    0.6140    6.2480   51.4600 O   0  0  0  0  0  0  0  0  0  0  0  0
    1.6240    7.3220   53.1910 N   0  0  0  0  0  0  0  0  0  0  0  0
    0.4190    8.1400   53.4010 C   0  0  0  0  0  0  0  0  0  0  0  0
    0.7190    9.1440   54.5120 C   0  0  0  0  0  0  0  0  0  0  0  0
    2.0750    8.7050   54.9640 C   0  0  0  0  0  0  0  0  0  0  0  0
    2.5780    7.6660   54.1680 C   0  0  0  0  0  0  0  0  0  0  0  0
    3.8410    7.1550   54.4270 C   0  0  0  0  0  0  0  0  0  0  0  0
    4.5890    7.6870   55.4860 C   0  0  0  0  0  0  0  0  0  0  0  0
    4.0630    8.7170   56.2790 C   0  0  0  0  0  0  0  0  0  0  0  0
    2.8000    9.2480   56.0170 C   0  0  0  0  0  0  0  0  0  0  0  0
    5.0330    9.3880   57.6080 S   0  0  0  0  0  0  0  0  0  0  0  0
    5.5700    8.2690   58.3550 O   0  0  0  0  0  0  0  0  0  0  0  0
    4.2690   10.4230   58.2690 O   0  0  0  0  0  0  0  0  0  0  0  0
    6.3450   10.0780   56.7960 N   0  0  0  0  0  0  0  0  0  0  0  0
    6.1370   11.3140   56.1270 C   0  0  0  0  0  0  0  0  0  0  0  0
    6.3280   12.5180   56.8050 C   0  0  0  0  0  0  0  0  0  0  0  0
    6.0890   13.7260   56.1500 C   0  0  0  0  0  0  0  0  0  0  0  0
    5.6580   13.7290   54.8230 C   0  0  0  0  0  0  0  0  0  0  0  0
    5.4610   12.5230   54.1510 C   0  0  0  0  0  0  0  0  0  0  0  0
    5.6980   11.3140   54.8040 C   0  0  0  0  0  0  0  0  0  0  0  0
    2.8490    5.5440   51.9280 C   0  0  0  0  0  0  0  0  0  0  0  0
    3.4120    5.7180   50.5140 C   0  0  0  0  0  0  0  0  0  0  0  0
    3.2510    4.4360   49.6940 C   0  0  0  0  0  0  0  0  0  0  0  0
    1.9590    4.3970   48.8720 C   0  0  0  0  0  0  0  0  0  0  0  0
    1.0080    3.2370   49.1840 C   0  0  0  0  0  0  0  0  0  0  0  0
    1.4190    2.3400   50.3550 C   0  0  0  0  0  0  0  0  0  0  0  0
   -0.0960    1.3790   52.1700 C   0  0  0  0  0  0  0  0  0  0  0  0
    0.6770    2.5890   51.6700 C   0  0  0  0  0  0  0  0  0  0  0  0
  2  1  2  0
  3  1  1  0
  4  3  1  0
  5  4  1  0
  6  5  1  0
  7  3  1  0
  7  6  2  0
  8  7  1  0
  9  8  2  0
 10  9  1  0
 11 10  2  0
 11  6  1  0
 12 10  1  0
 13 12  2  0
 14 12  2  0
 15 12  1  0
 16 15  1  0
 17 16  2  0
 18 17  1  0
 19 18  2  0
 20 19  1  0
 21 20  2  0
 21 16  1  0
 22  1  1  0
 23 22  1  0
 24 23  1  0
 25 24  1  0
 26 25  1  0
 27 26  1  0
 29 28  1  0
 29 27  1  0
M  END
$$$$
