-10.9
     RDKit          3D

 43 47  0  0  0  0  0  0  0  0999 V2000
    6.3760   12.8290   57.5530 S   0  0  0  0  0  0  0  0  0  0  0  0
    7.1430   12.7210   56.3310 O   0  0  0  0  0  0  0  0  0  0  0  0
    6.5980   13.9020   58.4980 O   0  0  0  0  0  0  0  0  0  0  0  0
    6.5650   11.2880   58.4370 C   0  0  0  0  0  0  0  0  0  0  0  0
    6.3250   11.2590   59.8130 C   0  0  0  0  0  0  0  0  0  0  0  0
    6.5150   10.0770   60.5290 C   0  0  0  0  0  0  0  0  0  0  0  0
    6.8740    8.8940   59.8710 C   0  0  0  0  0  0  0  0  0  0  0  0
    7.0390    8.9200   58.4780 C   0  0  0  0  0  0  0  0  0  0  0  0
    6.9030   10.1160   57.7590 C   0  0  0  0  0  0  0  0  0  0  0  0
    6.9980    7.6920   60.5960 N   0  0  0  0  0  0  0  0  0  0  0  0
    8.2800    7.1130   60.9460 C   0  0  0  0  0  0  0  0  0  0  0  0
    7.9630    5.6390   61.1520 C   0  0  0  0  0  0  0  0  0  0  0  0
    6.5300    5.6220   61.3760 N   0  0  0  0  0  0  0  0  0  0  0  0
    5.9530    6.8200   60.9550 C   0  0  0  0  0  0  0  0  0  0  0  0
    4.7520    7.0710   60.9510 O   0  0  0  0  0  0  0  0  0  0  0  0
    5.8000    4.3700   61.5170 C   0  0  0  0  0  0  0  0  0  0  0  0
    6.5130    3.1630   60.9170 C   0  0  0  0  0  0  0  0  0  0  0  0
    5.6360    1.9230   60.8740 C   0  0  0  0  0  0  0  0  0  0  0  0
    5.4510    1.2150   61.8620 O   0  0  0  0  0  0  0  0  0  0  0  0
    5.0400    1.6460   59.6640 N   0  0  0  0  0  0  0  0  0  0  0  0
    4.1990    0.4730   59.4840 C   0  0  0  0  0  0  0  0  0  0  0  0
    3.9610    0.3990   57.9830 C   0  0  0  0  0  0  0  0  0  0  0  0
    4.0160    1.8610   57.5580 C   0  0  0  0  0  0  0  0  0  0  0  0
    5.1200    2.4270   58.4390 C   0  0  0  0  0  0  0  0  0  0  0  0
    4.7220   12.8740   57.1690 N   0  0  0  0  0  0  0  0  0  0  0  0
    2.4490    9.5850   55.8660 C   0  0  0  0  0  0  0  0  0  0  0  0
    2.3320   10.0340   57.1890 C   0  0  0  0  0  0  0  0  0  0  0  0
    3.1560   11.0560   57.6630 C   0  0  0  0  0  0  0  0  0  0  0  0
    4.0760   11.6600   56.8100 C   0  0  0  0  0  0  0  0  0  0  0  0
    4.2660   11.1570   55.5240 C   0  0  0  0  0  0  0  0  0  0  0  0
    3.4670   10.1110   55.0600 C   0  0  0  0  0  0  0  0  0  0  0  0
    1.4450    8.6040   55.3080 C   0  0  0  0  0  0  0  0  0  0  0  0
    0.9830    8.9880   53.8900 C   0  0  0  0  0  0  0  0  0  0  0  0
    1.3260    7.9430   52.8790 N   0  0  0  0  0  0  0  0  0  0  0  0
    2.4740    7.0380   53.2200 C   0  0  0  0  0  0  0  0  0  0  0  0
    3.3400    6.7720   51.9670 C   0  0  1  0  0  0  0  0  0  0  0  0
    2.8070    5.6850   51.0740 C   0  0  0  0  0  0  0  0  0  0  0  0
    3.0730    5.6130   49.7030 C   0  0  0  0  0  0  0  0  0  0  0  0
    2.5710    4.5500   48.9560 C   0  0  0  0  0  0  0  0  0  0  0  0
    1.8050    3.5960   49.5990 C   0  0  0  0  0  0  0  0  0  0  0  0
    1.5090    3.6440   50.9150 N   0  0  0  0  0  0  0  0  0  0  0  0
    2.0220    4.6710   51.6210 C   0  0  0  0  0  0  0  0  0  0  0  0
    3.4800    8.0090   51.2480 O   0  0  0  0  0  0  0  0  0  0  0  0
  2  1  2  0
  3  1  2  0
  4  1  1  0
  5  4  2  0
  6  5  1  0
  7  6  2  0
  8  7  1  0
  9  8  2  0
  9  4  1  0
 10  7  1  0
 11 10  1  0
 12 11  1  0
 13 12  1  0
 14 13  1  0
 14 10  1  0
 15 14  2  0
 16 13  1  0
 17 16  1  0
 18 17  1  0
 19 18  2  0
 20 18  1  0
 21 20  1  0
 22 21  1  0
 23 22  1  0
 24 23  1  0
 24 20  1  0
 25  1  1  0
 27 26  2  0
 28 27  1  0
 29 28  2  0
 29 25  1  0
 30 29  1  0
 31 26  1  0
 31 30  2  0
 32 26  1  0
 33 32  1  0
 34 33  1  0
 35 34  1  0
 36 35  1  0
 37 36  1  0
 38 37  2  0
 39 38  1  0
 40 39  2  0
 41 40  1  0
 42 41  2  0
 42 37  1  0
 36 43  1  6
M  CHG  1  34   1
M  END
$$$$
