-8.4
     RDKit          3D

 19 21  0  0  0  0  0  0  0  0999 V2000
    1.1400    4.2460   50.5250 C   0  0  2  0  0  0  0  0  0  0  0  0
    2.4560    3.9940   51.3280 C   0  0  2  0  0  0  0  0  0  0  0  0
    2.3060    3.0920   52.5560 C   0  0  0  0  0  0  0  0  0  0  0  0
    1.2800    1.9680   52.4140 C   0  0  0  0  0  0  0  0  0  0  0  0
    1.3400    1.2660   51.1620 N   0  0  0  0  0  0  0  0  0  0  0  0
    1.0490    1.8170   49.9040 C   0  0  0  0  0  0  0  0  0  0  0  0
    0.9180    3.1450   49.5220 C   0  0  0  0  0  0  0  0  0  0  0  0
    0.6100    3.3590   48.1670 C   0  0  0  0  0  0  0  0  0  0  0  0
    0.4640    2.2820   47.2620 C   0  0  0  0  0  0  0  0  0  0  0  0
    0.6220    0.9570   47.6760 C   0  0  0  0  0  0  0  0  0  0  0  0
    0.9170    0.7600   49.0010 C   0  0  0  0  0  0  0  0  0  0  0  0
    1.1140   -0.4300   49.6900 N   0  0  0  0  0  0  0  0  0  0  0  0
    1.3390   -0.1450   51.0440 C   0  0  0  0  0  0  0  0  0  0  0  0
    1.4900   -0.9570   51.9380 O   0  0  0  0  0  0  0  0  0  0  0  0
    3.0060    5.3520   51.7500 N   0  0  0  0  0  0  0  0  0  0  0  0
    2.5920    5.8900   53.0860 C   0  0  0  0  0  0  0  0  0  0  0  0
    1.6190    7.0390   52.8440 C   0  0  0  0  0  0  0  0  0  0  0  0
    3.8180    6.3650   53.8560 C   0  0  0  0  0  0  0  0  0  0  0  0
    1.2870    5.5400   49.9050 O   0  0  0  0  0  0  0  0  0  0  0  0
  2  1  1  0
  3  2  1  0
  4  3  1  0
  5  4  1  0
  6  5  1  0
  7  6  2  0
  7  1  1  0
  8  7  1  0
  9  8  2  0
 10  9  1  0
 11 10  2  0
 11  6  1  0
 12 11  1  0
 13 12  1  0
 13  5  1  0
 14 13  2  0
  2 15  1  1
 16 15  1  0
 17 16  1  0
 18 16  1  0
  1 19  1  6
M  CHG  1  15   1
M  END
$$$$
