-9.1
     RDKit          3D

 27 29  0  0  0  0  0  0  0  0999 V2000
    3.3010    9.9850   57.1290 C   0  0  0  0  0  0  0  0  0  0  0  0
    2.0410    9.7670   56.6230 N   0  0  0  0  0  0  0  0  0  0  0  0
    2.0710    8.8420   55.6120 C   0  0  0  0  0  0  0  0  0  0  0  0
    3.3940    8.4500   55.4590 C   0  0  0  0  0  0  0  0  0  0  0  0
    4.1740    9.1670   56.4240 C   0  0  0  0  0  0  0  0  0  0  0  0
    3.6950    7.4940   54.4690 C   0  0  0  0  0  0  0  0  0  0  0  0
    2.6850    6.9400   53.6460 C   0  0  0  0  0  0  0  0  0  0  0  0
    1.3480    7.3530   53.8470 C   0  0  0  0  0  0  0  0  0  0  0  0
    1.0360    8.3190   54.8290 C   0  0  0  0  0  0  0  0  0  0  0  0
    0.2130    6.7920   53.0280 C   0  0  0  0  0  0  0  0  0  0  0  0
    3.1130    5.9240   52.5910 C   0  0  0  0  0  0  0  0  0  0  0  0
    3.0220    4.6880   52.8720 O   0  0  0  0  0  0  0  0  0  0  0  0
    3.5230    6.3910   51.4790 O   0  0  0  0  0  0  0  0  0  0  0  0
    3.5370   10.9570   58.2340 C   0  0  2  0  0  0  0  0  0  0  0  0
    3.7910   12.2190   57.6180 O   0  0  0  0  0  0  0  0  0  0  0  0
    4.7350   10.5500   59.1000 C   0  0  0  0  0  0  0  0  0  0  0  0
    5.6650   11.7340   59.3890 C   0  0  0  0  0  0  0  0  0  0  0  0
    7.4140    9.8890   59.6330 C   0  0  0  0  0  0  0  0  0  0  0  0
    7.0130   11.3150   59.9810 C   0  0  0  0  0  0  0  0  0  0  0  0
    5.6530    9.0330   56.6180 C   0  0  0  0  0  0  0  0  0  0  0  0
    6.4400    9.5830   55.4250 C   0  0  0  0  0  0  0  0  0  0  0  0
    6.2000   11.0610   55.2340 C   0  0  0  0  0  0  0  0  0  0  0  0
    5.2710   11.5050   54.2820 C   0  0  0  0  0  0  0  0  0  0  0  0
    5.0290   12.8680   54.1140 C   0  0  0  0  0  0  0  0  0  0  0  0
    5.7080   13.8000   54.8980 C   0  0  0  0  0  0  0  0  0  0  0  0
    6.6290   13.3690   55.8500 C   0  0  0  0  0  0  0  0  0  0  0  0
    6.8730   12.0050   56.0200 C   0  0  0  0  0  0  0  0  0  0  0  0
  2  1  1  0
  3  2  1  0
  4  3  2  0
  5  4  1  0
  5  1  2  0
  6  4  1  0
  7  6  2  0
  8  7  1  0
  9  8  2  0
  9  3  1  0
 10  8  1  0
 11  7  1  0
 12 11  2  0
 13 11  1  0
 14  1  1  0
 14 15  1  6
 16 14  1  0
 17 16  1  0
 19 18  1  0
 19 17  1  0
 20  5  1  0
 21 20  1  0
 22 21  1  0
 23 22  2  0
 24 23  1  0
 25 24  2  0
 26 25  1  0
 27 26  2  0
 27 22  1  0
M  CHG  1  13  -1
M  END
$$$$
