-9.7
     RDKit          3D

 32 34  0  0  0  0  0  0  0  0999 V2000
    0.6760    7.1610   53.2450 C   0  0  0  0  0  0  0  0  0  0  0  0
    3.8230    8.6290   55.7950 C   0  0  0  0  0  0  0  0  0  0  0  0
    4.0570    7.5370   54.9620 C   0  0  0  0  0  0  0  0  0  0  0  0
    3.0300    7.0460   54.1520 C   0  0  0  0  0  0  0  0  0  0  0  0
    1.7650    7.6500   54.1630 C   0  0  0  0  0  0  0  0  0  0  0  0
    1.5420    8.7490   55.0060 C   0  0  0  0  0  0  0  0  0  0  0  0
    2.5690    9.2370   55.8160 C   0  0  0  0  0  0  0  0  0  0  0  0
    4.8840    9.1900   56.5550 N   0  0  0  0  0  0  0  0  0  0  0  0
    5.9840   10.1900   55.7390 S   0  0  0  0  0  0  0  0  0  0  0  0
    7.1790    9.4310   55.4340 O   0  0  0  0  0  0  0  0  0  0  0  0
    5.2260   10.8580   54.7030 O   0  0  0  0  0  0  0  0  0  0  0  0
    7.2790   14.2010   59.8440 F   0  0  0  0  0  0  0  0  0  0  0  0
    6.9790   13.2900   58.9090 C   0  0  0  0  0  0  0  0  0  0  0  0
    6.9870   13.6630   57.5680 C   0  0  0  0  0  0  0  0  0  0  0  0
    6.6820   12.7180   56.5870 C   0  0  0  0  0  0  0  0  0  0  0  0
    6.3770   11.4060   56.9710 C   0  0  0  0  0  0  0  0  0  0  0  0
    6.3560   11.0390   58.3230 C   0  0  0  0  0  0  0  0  0  0  0  0
    6.6630   11.9910   59.2950 C   0  0  0  0  0  0  0  0  0  0  0  0
    1.0520    5.8140   52.6260 C   0  0  0  0  0  0  0  0  0  0  0  0
    1.2160    5.9280   51.1480 N   0  0  0  0  0  0  0  0  0  0  0  0
    2.5170    5.4440   50.5620 C   0  0  0  0  0  0  0  0  0  0  0  0
    2.2460    5.0970   49.0940 C   0  0  2  0  0  0  0  0  0  0  0  0
    1.1150    5.8940   48.6850 O   0  0  0  0  0  0  0  0  0  0  0  0
    1.9540    3.6040   48.8970 C   0  0  0  0  0  0  0  0  0  0  0  0
    0.9470    3.1780   49.8210 O   0  0  0  0  0  0  0  0  0  0  0  0
    1.1460    2.0050   50.4870 C   0  0  0  0  0  0  0  0  0  0  0  0
    1.6270    2.1200   51.7860 C   0  0  0  0  0  0  0  0  0  0  0  0
    1.8200    0.9730   52.5550 C   0  0  0  0  0  0  0  0  0  0  0  0
    1.5370   -0.2640   51.9990 C   0  0  0  0  0  0  0  0  0  0  0  0
    1.0830   -0.4040   50.7420 N   0  0  0  0  0  0  0  0  0  0  0  0
    0.9220    0.7220   50.0080 C   0  0  0  0  0  0  0  0  0  0  0  0
    1.6630   -1.4250   52.7500 N   0  0  0  0  0  0  0  0  0  0  0  0
  3  2  2  0
  4  3  1  0
  5  4  2  0
  5  1  1  0
  6  5  1  0
  7  6  2  0
  7  2  1  0
  8  2  1  0
  9  8  1  0
 10  9  2  0
 11  9  2  0
 13 12  1  0
 14 13  2  0
 15 14  1  0
 16  9  1  0
 16 15  2  0
 17 16  1  0
 18 17  2  0
 18 13  1  0
 19  1  1  0
 20 19  1  0
 21 20  1  0
 22 21  1  0
 22 23  1  1
 24 22  1  0
 25 24  1  0
 26 25  1  0
 27 26  2  0
 28 27  1  0
 29 28  2  0
 30 29  1  0
 31 30  2  0
 31 26  1  0
 32 29  1  0
M  CHG  1  20   1
M  END
$$$$
