-10.4
     RDKit          3D

 40 43  0  0  0  0  0  0  0  0999 V2000
    6.0260   11.5470   57.1180 N   0  0  0  0  0  0  0  0  0  0  0  0
    6.9610    9.0610   60.4010 C   0  0  0  0  0  0  0  0  0  0  0  0
    6.4680    8.5100   59.2100 C   0  0  0  0  0  0  0  0  0  0  0  0
    6.1760    9.3320   58.1190 C   0  0  0  0  0  0  0  0  0  0  0  0
    6.3860   10.7060   58.2060 C   0  0  0  0  0  0  0  0  0  0  0  0
    6.8730   11.2660   59.3850 C   0  0  0  0  0  0  0  0  0  0  0  0
    7.1640   10.4470   60.4780 C   0  0  0  0  0  0  0  0  0  0  0  0
    7.2820    8.1770   61.5780 C   0  0  0  0  0  0  0  0  0  0  0  0
    6.0610    7.3610   61.9990 C   0  0  0  0  0  0  0  0  0  0  0  0
    6.4820    5.9660   62.3490 N   0  0  0  0  0  0  0  0  0  0  0  0
    5.9530    4.8830   61.4470 C   0  0  0  0  0  0  0  0  0  0  0  0
    6.5050    4.9370   59.9990 C   0  0  1  0  0  0  0  0  0  0  0  0
    7.9050    4.3970   59.8810 C   0  0  0  0  0  0  0  0  0  0  0  0
    9.0130    5.1580   60.2700 C   0  0  0  0  0  0  0  0  0  0  0  0
   10.2900    4.6050   60.2040 C   0  0  0  0  0  0  0  0  0  0  0  0
   10.4170    3.3010   59.7620 C   0  0  0  0  0  0  0  0  0  0  0  0
    9.3680    2.5400   59.3840 N   0  0  0  0  0  0  0  0  0  0  0  0
    8.1480    3.1080   59.4140 C   0  0  0  0  0  0  0  0  0  0  0  0
    5.6330    4.1930   59.1580 O   0  0  0  0  0  0  0  0  0  0  0  0
    4.4020   12.0260   57.0060 S   0  0  0  0  0  0  0  0  0  0  0  0
    3.7960   11.9570   58.3180 O   0  0  0  0  0  0  0  0  0  0  0  0
    4.4060   13.2550   56.2420 O   0  0  0  0  0  0  0  0  0  0  0  0
    3.7020   10.7620   55.9770 C   0  0  0  0  0  0  0  0  0  0  0  0
    2.7330    9.9000   56.4920 C   0  0  0  0  0  0  0  0  0  0  0  0
    2.1880    8.9090   55.6690 C   0  0  0  0  0  0  0  0  0  0  0  0
    2.5940    8.7730   54.3300 C   0  0  0  0  0  0  0  0  0  0  0  0
    3.5580    9.6640   53.8310 C   0  0  0  0  0  0  0  0  0  0  0  0
    4.1090   10.6580   54.6460 C   0  0  0  0  0  0  0  0  0  0  0  0
    2.0300    7.7380   53.4730 C   0  0  0  0  0  0  0  0  0  0  0  0
    0.7630    7.3540   53.0910 C   0  0  0  0  0  0  0  0  0  0  0  0
    0.8240    6.2840   52.2340 N   0  0  0  0  0  0  0  0  0  0  0  0
    2.1140    6.0440   52.1290 C   0  0  0  0  0  0  0  0  0  0  0  0
    2.9100    6.8930   52.8470 O   0  0  0  0  0  0  0  0  0  0  0  0
    2.8020    4.9840   51.3490 C   0  0  0  0  0  0  0  0  0  0  0  0
    2.6240    3.6120   52.0050 C   0  0  0  0  0  0  0  0  0  0  0  0
    2.6380    2.4550   50.9950 C   0  0  0  0  0  0  0  0  0  0  0  0
    1.3420    1.6050   50.8770 C   0  0  0  0  0  0  0  0  0  0  0  0
    0.2640    2.0530   51.8740 C   0  0  0  0  0  0  0  0  0  0  0  0
    0.7880    1.7770   49.4490 C   0  0  0  0  0  0  0  0  0  0  0  0
    1.6440    0.1120   51.0980 C   0  0  0  0  0  0  0  0  0  0  0  0
  3  2  2  0
  4  3  1  0
  5  4  2  0
  5  1  1  0
  6  5  1  0
  7  2  1  0
  7  6  2  0
  8  2  1  0
  9  8  1  0
 10  9  1  0
 11 10  1  0
 12 11  1  0
 13 12  1  0
 14 13  2  0
 15 14  1  0
 16 15  2  0
 17 16  1  0
 18 17  2  0
 18 13  1  0
 12 19  1  6
 20  1  1  0
 21 20  2  0
 22 20  2  0
 23 20  1  0
 24 23  2  0
 25 24  1  0
 26 25  2  0
 27 26  1  0
 28 27  2  0
 28 23  1  0
 29 26  1  0
 30 29  2  0
 31 30  1  0
 32 31  2  0
 33 32  1  0
 33 29  1  0
 34 32  1  0
 35 34  1  0
 36 35  1  0
 37 36  1  0
 38 37  1  0
 39 37  1  0
 40 37  1  0
M  CHG  1  10   1
M  END
$$$$
