-10.1
     RDKit          3D

 55 60  0  0  0  0  0  0  0  0999 V2000
    8.0750    6.5050   61.4180 N   0  0  0  0  0  0  0  0  0  0  0  0
    7.8480    6.6830   62.7500 C   0  0  0  0  0  0  0  0  0  0  0  0
    7.5440    5.8450   63.5840 O   0  0  0  0  0  0  0  0  0  0  0  0
    8.7210    3.3080   59.5560 C   0  0  0  0  0  0  0  0  0  0  0  0
    8.9550    4.4790   60.2960 C   0  0  0  0  0  0  0  0  0  0  0  0
    7.9030    5.3390   60.6360 C   0  0  0  0  0  0  0  0  0  0  0  0
    6.6080    5.0150   60.1980 C   0  0  0  0  0  0  0  0  0  0  0  0
    6.3640    3.8530   59.4580 C   0  0  0  0  0  0  0  0  0  0  0  0
    7.4160    2.9800   59.1420 C   0  0  0  0  0  0  0  0  0  0  0  0
    5.2630    6.0400   60.5630 Cl  0  0  0  0  0  0  0  0  0  0  0  0
   11.0480    2.8490   59.2320 C   0  0  0  0  0  0  0  0  0  0  0  0
    9.6900    2.4160   59.1770 O   0  0  0  0  0  0  0  0  0  0  0  0
    7.1360    1.7110   58.3780 C   0  0  0  0  0  0  0  0  0  0  0  0
    5.6920    1.3270   58.3260 N   0  0  0  0  0  0  0  0  0  0  0  0
    5.3000    0.0630   59.0390 C   0  0  0  0  0  0  0  0  0  0  0  0
    4.1770    0.2600   60.0860 C   0  0  1  0  0  0  0  0  0  0  0  0
    4.7370    0.4340   61.4860 C   0  0  0  0  0  0  0  0  0  0  0  0
    5.1930    1.6890   61.9270 C   0  0  0  0  0  0  0  0  0  0  0  0
    5.7330    1.8500   63.2060 C   0  0  0  0  0  0  0  0  0  0  0  0
    5.8290    0.7580   64.0590 C   0  0  0  0  0  0  0  0  0  0  0  0
    5.4120   -0.5040   63.6420 C   0  0  0  0  0  0  0  0  0  0  0  0
    4.8600   -0.6630   62.3600 C   0  0  0  0  0  0  0  0  0  0  0  0
    4.5270   -1.9020   61.8620 O   0  0  0  0  0  0  0  0  0  0  0  0
    4.2250   -2.8510   62.8890 C   0  0  0  0  0  0  0  0  0  0  0  0
    5.1400   -2.8570   64.1060 C   0  0  0  0  0  0  0  0  0  0  0  0
    5.3970   -3.8650   64.7520 O   0  0  0  0  0  0  0  0  0  0  0  0
    5.6140   -1.6220   64.4560 N   0  0  0  0  0  0  0  0  0  0  0  0
    6.3460    0.9810   65.3010 O   0  0  0  0  0  0  0  0  0  0  0  0
    3.4030    1.3990   59.7020 O   0  0  0  0  0  0  0  0  0  0  0  0
    8.0270    7.9990   63.0580 O   0  0  0  0  0  0  0  0  0  0  0  0
    6.9980    8.8800   62.5660 C   0  0  0  0  0  0  0  0  0  0  0  0
    7.1500    9.2090   61.0730 C   0  0  0  0  0  0  0  0  0  0  0  0
    6.3890   10.4690   60.6260 N   0  0  1  0  0  0  0  0  0  0  0  0
    6.8130   11.6700   61.4470 C   0  0  0  0  0  0  0  0  0  0  0  0
    6.3740   10.7530   59.1110 C   0  0  2  0  0  0  0  0  0  0  0  0
    5.4340   11.9270   58.7810 C   0  0  0  0  0  0  0  0  0  0  0  0
    3.9530   11.5930   58.9860 C   0  0  0  0  0  0  0  0  0  0  0  0
    3.5270   10.3410   58.2100 C   0  0  2  0  0  0  0  0  0  0  0  0
    4.4510    9.1610   58.5270 C   0  0  0  0  0  0  0  0  0  0  0  0
    5.9260    9.5170   58.3100 C   0  0  0  0  0  0  0  0  0  0  0  0
    3.6300   10.6570   56.8100 O   0  0  0  0  0  0  0  0  0  0  0  0
    2.8950    9.8860   55.9510 C   0  0  0  0  0  0  0  0  0  0  0  0
    1.8120    9.3900   56.2590 O   0  0  0  0  0  0  0  0  0  0  0  0
    3.6020    9.6320   54.5890 C   0  0  0  0  0  0  0  0  0  0  0  0
    3.4740    8.1640   54.1930 C   0  0  0  0  0  0  0  0  0  0  0  0
    3.9670    7.0270   54.8190 C   0  0  0  0  0  0  0  0  0  0  0  0
    3.6110    5.8220   54.1470 C   0  0  0  0  0  0  0  0  0  0  0  0
    2.8460    6.0610   53.0300 C   0  0  0  0  0  0  0  0  0  0  0  0
    2.5480    7.7240   52.8010 S   0  0  0  0  0  0  0  0  0  0  0  0
    5.0180   10.1930   54.6150 C   0  0  0  0  0  0  0  0  0  0  0  0
    6.1650    9.5930   55.1150 C   0  0  0  0  0  0  0  0  0  0  0  0
    7.3250   10.4060   54.9780 C   0  0  0  0  0  0  0  0  0  0  0  0
    7.0440   11.6090   54.3760 C   0  0  0  0  0  0  0  0  0  0  0  0
    5.3920   11.7520   53.9710 S   0  0  0  0  0  0  0  0  0  0  0  0
    2.8870   10.3690   53.5860 O   0  0  0  0  0  0  0  0  0  0  0  0
  2  1  1  0
  3  2  2  0
  5  4  2  0
  6  5  1  0
  6  1  1  0
  7  6  2  0
  8  7  1  0
  9  8  2  0
  9  4  1  0
 10  7  1  0
 12  4  1  0
 12 11  1  0
 13  9  1  0
 14 13  1  0
 15 14  1  0
 16 15  1  0
 17 16  1  0
 18 17  2  0
 19 18  1  0
 20 19  2  0
 21 20  1  0
 22 21  2  0
 22 17  1  0
 23 22  1  0
 24 23  1  0
 25 24  1  0
 26 25  2  0
 27 25  1  0
 27 21  1  0
 28 20  1  0
 16 29  1  6
 30  2  1  0
 31 30  1  0
 32 31  1  0
 33 32  1  0
 33 34  1  1
 35 33  1  0
 35 36  1  1
 37 36  1  0
 38 37  1  0
 39 38  1  0
 40 39  1  0
 40 35  1  0
 38 41  1  6
 42 41  1  0
 43 42  2  0
 44 42  1  0
 45 44  1  0
 46 45  2  0
 47 46  1  0
 48 47  2  0
 49 48  1  0
 49 45  1  0
 50 44  1  0
 51 50  2  0
 52 51  1  0
 53 52  2  0
 54 50  1  0
 54 53  1  0
 55 44  1  0
M  CHG  2  14   1  33   1
M  END
$$$$
